<?xml version="1.0" encoding="utf-8"?>
<scenario id="null" name="null" schemaVersion="1.0.19">
   <settings>
      <units>US</units>
   </settings>
 <!-- <SplitRatioProfileSet>
      <splitratioProfile dt="300" node_id="-2">
         <splitratio link_in="-1" link_out="-2">1.000000</splitratio>
      </splitratioProfile>
      <splitratioProfile dt="300" node_id="-3">
         <splitratio link_in="-2" link_out="-3">1.000000</splitratio>
         <splitratio link_in="-6" link_out="-3">1.000000</splitratio>
      </splitratioProfile>
      <splitratioProfile dt="300" node_id="-4">
         <splitratio link_in="-3" link_out="-4">1.000000</splitratio>
         <splitratio link_in="-3" link_out="-7">0.000000</splitratio>
      </splitratioProfile>
      <splitratioProfile dt="300" node_id="-5">
         <splitratio link_in="-4" link_out="-5">1.000000</splitratio>
      </splitratioProfile>
   </SplitRatioProfileSet>
   -->
   <DemandProfileSet>
      <demandProfile dt="300" knob="1" link_id_origin="1">400.000000</demandProfile>
      <demandProfile dt="300" knob="1" link_id_origin="4">100.000000</demandProfile>
   </DemandProfileSet>
   <NetworkList>
      <network dt="5" id="0" name="New Network">
         <description></description>
         <position>
            <point lat="0" lng="0"/>
         </position>
         <NodeList>
            <node id="o1" name="o1" type="terminal">
               <outputs/>
               <inputs/>
               <position>
                  <point lat="0" lng="0"/>
               </position>
            </node>
            <node id="d1" name="d1" type="terminal">
               <outputs/>
               <inputs/>
               <position>
                  <point lat="0" lng="0"/>
               </position>
            </node>
            <node id="o2" name="o2" type="terminal">
               <outputs/>
               <inputs/>
               <position>
                  <point lat="0" lng="0"/>
               </position>
            </node>
            <node id="d2" name="d2" type="terminal">
               <outputs/>
               <inputs/>
               <position>
                  <point lat="0" lng="0"/>
               </position>
            </node>
            <node id="1" name="1" type="simple">
               <outputs>
                  <output link_id="2"/>
                  <output link_id="7"/>
               </outputs>
               <inputs>
                  <input link_id="1"/>
                  <input link_id="8"/>
               </inputs>
               <position>
                  <point lat="0" lng="0"/>
               </position>
            </node>
            <node id="2" name="2" type="simple">
               <outputs>
                  <output link_id="3"/>
                  <output link_id="9"/>
               </outputs>
               <inputs>
                  <input link_id="2"/>
                  <input link_id="10"/>
               </inputs>
               <position>
                  <point lat="0" lng="0"/>
               </position>
            </node>
            <node id="3" name="3" type="simple">
               <outputs>
                  <output link_id="5"/>
                  <output link_id="8"/>
               </outputs>
               <inputs>
                  <input link_id="4"/>
                  <input link_id="7"/>
               </inputs>
               <position>
                  <point lat="0" lng="0"/>
               </position>
            </node>
            <node id="4" name="4" type="simple">
               <outputs>
                  <output link_id="6"/>
                  <output link_id="10"/>
               </outputs>
               <inputs>
                  <input link_id="5"/>
                  <input link_id="9"/>
               </inputs>
               <position>
                  <point lat="0" lng="0"/>
               </position>
            </node>
         </NodeList>
         <LinkList>
            <link id="1" lanes="1" length="0.5" name="1" record="true" type="freeway">
               <description/>
               <begin node_id="o1"/>
               <end node_id="1"/>
               <dynamics type="CTM"/>
            </link>
            <link id="2" lanes="1" length="0.5" name="1" record="true" type="freeway">
               <description/>
               <begin node_id="1"/>
               <end node_id="2"/>
               <dynamics type="CTM"/>
            </link>
            <link id="3" lanes="1" length="0.5" name="1" record="true" type="freeway">
               <description/>
               <begin node_id="2"/>
               <end node_id="d1"/>
               <dynamics type="CTM"/>
            </link>
            <link id="4" lanes="1" length="0.5" name="1" record="true" type="freeway">
               <description/>
               <begin node_id="o2"/>
               <end node_id="3"/>
               <dynamics type="CTM"/>
            </link>
            <link id="5" lanes="1" length="0.5" name="1" record="true" type="freeway">
               <description/>
               <begin node_id="3"/>
               <end node_id="4"/>
               <dynamics type="CTM"/>
            </link>
            <link id="6" lanes="1" length="0.5" name="1" record="true" type="freeway">
               <description/>
               <begin node_id="4"/>
               <end node_id="d2"/>
               <dynamics type="CTM"/>
            </link>
            <link id="7" lanes="1" length="0.5" name="1" record="true" type="freeway">
               <description/>
               <begin node_id="1"/>
               <end node_id="3"/>
               <dynamics type="CTM"/>
            </link>
            <link id="8" lanes="1" length="0.5" name="1" record="true" type="freeway">
               <description/>
               <begin node_id="3"/>
               <end node_id="1"/>
               <dynamics type="CTM"/>
            </link>
            <link id="9" lanes="1" length="0.5" name="1" record="true" type="freeway">
               <description/>
               <begin node_id="2"/>
               <end node_id="4"/>
               <dynamics type="CTM"/>
            </link>
            <link id="10" lanes="1" length="0.5" name="1" record="true" type="freeway">
               <description/>
               <begin node_id="4"/>
               <end node_id="2"/>
               <dynamics type="CTM"/>
            </link>
         </LinkList>
      </network>
   </NetworkList>
   <ODList>
		<od id="o1d1" link_id_origin="o1" link_id_destination="d1">
			<route_segments>a,b,n</route_segments>
			<decision_points>a,b,c</decision_points>
		</od>

		<od id="o1d2" link_id_origin="o1" link_id_destination="d2">
			<route_segments>a,b,n</route_segments>
			<decision_points>a,b,c</decision_points>
		</od>

		<od id="o2d1" link_id_origin="o2" link_id_destination="d1">
			<route_segments>a,b,n</route_segments>
			<decision_points>a,b,c</decision_points>
		</od>
 
		<od id="o2d2" link_id_origin="o2" link_id_destination="d2">
			<route_segments>a,b,n</route_segments>
			<decision_points>a,b,c</decision_points>
		</od>
   </ODList>
   <RouteSegments>
		<route_segment id="1">
			<link_references>
				<link_reference id="1"/>
			</link_references>
		</route_segment>
		<route_segment id="2">
			<link_references>
				<link_reference id="2"/>
			</link_references>
		</route_segment>
		<route_segment id="3">
			<link_references>
				<link_reference id="3"/>
			</link_references>
		</route_segment>
		<route_segment id="4">
			<link_references>
				<link_reference id="4"/>
			</link_references>
		</route_segment>
		<route_segment id="5">
			<link_references>
				<link_reference id="5"/>
			</link_references>
		</route_segment>
		<route_segment id="6">
			<link_references>
				<link_reference id="6"/>
			</link_references>
		</route_segment>
		<route_segment id="7">
			<link_references>
				<link_reference id="7"/>
			</link_references>
		</route_segment>
		<route_segment id="8">
			<link_references>
				<link_reference id="8"/>
			</link_references>
		</route_segment>
		<route_segment id="9">
			<link_references>
				<link_reference id="9"/>
			</link_references>
		</route_segment>
		<route_segment id="10">
			<link_references>
				<link_reference id="10"/>
			</link_references>
		</route_segment>
   </RouteSegments>
   <DecisionPoints>
		<decision_point id="1" od_id="o1d1" node_id="1" start_time="0" dt="300">
			<decision_point_split route_segment_in="1" route_segment_out="2">0.5</decision_point_split>
			<decision_point_split route_segment_in="1" route_segment_out="7">0.5</decision_point_split>
		</decision_point>
		<decision_point id="2" od_id="o1d2" node_id="1" start_time="0" dt="300">
			<decision_point_split route_segment_in="1" route_segment_out="2">0.5</decision_point_split>
			<decision_point_split route_segment_in="1" route_segment_out="7">0.5</decision_point_split>
		</decision_point>
		<decision_point id="3" od_id="o2d1" node_id="3" start_time="0" dt="300">
			<decision_point_split route_segment_in="4" route_segment_out="8">0.5</decision_point_split>
			<decision_point_split route_segment_in="4" route_segment_out="5">0.5</decision_point_split>
		</decision_point>
		<decision_point id="4" od_id="o2d2" node_id="3" start_time="0" dt="300">
			<decision_point_split route_segment_in="4" route_segment_out="8">0.5</decision_point_split>
			<decision_point_split route_segment_in="4" route_segment_out="5">0.5</decision_point_split>
		</decision_point>
   </DecisionPoints>
   <ODDemandProfileSet>
		<od_demandProfile knob="1.0" start_time="0" dt="300" od_id="o1d1" std_dev_add="0" std_dev_mult="0">
			100
		</od_demandProfile>
		<od_demandProfile knob="1.0" start_time="0" dt="300" od_id="o1d2" std_dev_add="0" std_dev_mult="0">
			100
		</od_demandProfile>
		<od_demandProfile knob="1.0" start_time="0" dt="300" od_id="o2d1" std_dev_add="0" std_dev_mult="0">
			100
		</od_demandProfile>
		<od_demandProfile knob="1.0" start_time="0" dt="300" od_id="o2d2" std_dev_add="0" std_dev_mult="0">
			100
		</od_demandProfile>
   </ODDemandProfileSet>
</scenario>
